CM Yagi-Uda Antenna @ 900 MHz
CE
GW	1	11	-0.140	-0.120	0	-0.140	0.120	0	0.0010
GW	2	11	0.025	-0.0743	0	0.025	0.0743	0	0.0010
GW	3	11	0.117	-0.075	0	0.117	0.075	0	0.0010
GW	4	11	0.217	-0.075	0	0.217	0.075	0	0.0010
GW	5	11	0.317	-0.075	0	0.317	0.075	0	0.0010
GE	0
GN	-1
EK
EX	0	2	6	0	1	0	0
FR	0	0	0	0	900	0
RP	0	181	1	1000	0	0	1	0		
EN
